Circuit: * C:\PP\Dydaktyka\MATERIALY\TC_MATERIALY\Microprocessor-systems-exampels\L01\Draft1.asc

.OP point found by inspection.

Date: Wed Mar 30 19:05:47 2022
Total elapsed time: 0.023 seconds.

tnom = 27
temp = 27
method = modified trap
totiter = 2092
traniter = 2092
tranpoints = 1047
accept = 1046
rejected = 1
matrix size = 3
fillins = 0
solver = Normal
Matrix Compiler1: 50 bytes object code size  0.0/0.0/[0.0]
Matrix Compiler2:      15 opcodes  0.1/[0.0]/0.0

