Circuit: * C:\PP\Dydaktyka\MATERIALY\TC_MATERIALY\Microprocessor-systems-exampels\L01\mosfet_logic.asc

Per .tran options, skipping operating point for transient analysis.

Date: Fri Mar 04 18:13:51 2022
Total elapsed time: 0.055 seconds.

tnom = 27
temp = 27
method = modified trap
totiter = 3001
traniter = 3001
tranpoints = 1244
accept = 1197
rejected = 47
matrix size = 12
fillins = 0
solver = Normal
Matrix Compiler1: 446 bytes object code size  0.1/0.1/[0.1]
Matrix Compiler2: 940 bytes object code size  0.1/0.2/[0.1]

