Circuit: * C:\PP\Dydaktyka\MATERIALY\TC_MATERIALY\Microprocessor-systems-exampels\FT\Logic circuit\display_control.asc

Limiting rise time of source v1 to 5e-005
Limiting fall time of source v1 to 5e-005
Direct Newton iteration for .op point succeeded.

Date: Sat Jun 04 18:03:48 2022
Total elapsed time: 0.070 seconds.

tnom = 27
temp = 27
method = modified trap
totiter = 4649
traniter = 4616
tranpoints = 1706
accept = 1540
rejected = 166
matrix size = 16
fillins = 0
solver = Normal
Matrix Compiler1: 664 bytes object code size  0.2/0.1/[0.1]
Matrix Compiler2: off  [0.1]/0.2/0.2

